11
Coordinates from ORCA-job propane_opt
  C   -5.48456715558506      1.92069569625067     -0.07174863412104
  C   -3.95732330724208      1.90773547545912     -0.07175642186779
  H   -5.87823419561401      2.93922681454986     -0.07162420918541
  H   -5.88100979728577      1.41000366374186     -0.95338202379452
  H   -5.88100113345719      1.40979228675305      0.80976631463127
  C   -3.37824142834022      0.49435939822116     -0.07193434202072
  H   -3.58825232231279      2.45263106354413     -0.94632757213751
  H   -3.58824758347170      2.45241219497402      0.80294916753013
  H   -2.28631365798485      0.50720164567624     -0.07196258366251
  H   -3.70488023716039     -0.06363120451657      0.80963633758684
  H   -3.70492918154593     -0.06342703465356     -0.95361603295875
