11
Coordinates from ORCA-job propane_opt
  C   -5.48129672124137      1.91902042205872     -0.07175480174836
  C   -3.95683708369184      1.90846727278743     -0.07175526239207
  H   -5.87906396019464      2.94040094266720     -0.07162999164424
  H   -5.87842253113246      1.40558393652167     -0.95643117680205
  H   -5.87841145113376      1.40537531522403      0.81280655592742
  C   -3.38095814122775      0.49684180094247     -0.07193650336921
  H   -3.58655403286213      2.45513281013557     -0.94961869035332
  H   -3.58657744394234      2.45489763157057      0.80626550866053
  H   -2.28488494543243      0.50684411156586     -0.07198760302620
  H   -3.70995503970592     -0.06287431270101      0.81264068135262
  H   -3.71003864943535     -0.06268993077252     -0.95659871660511
